%chk=D:\Research_work\Collaboration\Chandu\Cu-Ni-O\CuO\2.slab-111\ads\CHO\cho.chk
# hf/3-21g geom=connectivity

Title Card Required

0 2
 C                  0.29556652    0.17241379    0.00000000
 H                 -0.54584576    0.83341710    0.00000000
 O                  1.62286285    0.70456457    0.00000000

 1 2 1.0 3 1.0
 2
 3

