%chk=D:\Research_work\HEA\PtPdRhRuCe\ads\NOH\noh.chk
# hf/3-21g geom=connectivity

Title Card Required

0 1
 N                  0.84577115   -0.07462686    0.00000000
 O                  1.29911233    0.56647738   -1.11043556
 H                  0.55275415    0.86684080   -1.63420199

 1 2 1.0
 2 3 1.0
 3

